/*--------------------------------*- C++ -*----------------------------------*\
  =========                 |
  \\      /  F ield         | OpenFOAM: The Open Source CFD Toolbox
   \\    /   O peration     | Website:  https://openfoam.org
    \\  /    A nd           | Version:  10
     \\/     M anipulation  |
\*---------------------------------------------------------------------------*/
FoamFile
{
    format      ascii;
    class       volScalarField;
    location    "0";
    object      nut;
}
// * * * * * * * * * * * * * * * * * * * * * * * * * * * * * * * * * * * * * //

dimensions      [0 2 -1 0 0 0 0];

internalField   uniform 0;

boundaryField
{
    inlet
    {
        type            calculated;
        value           uniform 0;
    }
    
    outlet
    {
        type            calculated;
        value           uniform 0;
    }
    
    upWall
    {
        type            nutkWallFunction;
        value           uniform 0;
    }
    
    floorWall
    {
        type            nutkWallFunction;
        value           uniform 0;
    }
    
    northWall
    {
        type            nutkWallFunction;
        value           uniform 0;
    }
    
    southWall
    {
        type            nutkWallFunction;
        value           uniform 0;
    }
    
    eastWall
    {
        type		empty;
    }
    
    westWall
    {
        type		empty;
    }
    
    interWall
    {
        type            nutkWallFunction;
        value           uniform 0;
    }
}


// ************************************************************************* //
